# MF2K-MT3DMS LINKER FILE
#
OUTPUT_FILE_NAME DSModel_3Layer.hff
OUTPUT_FILE_UNIT
OUTPUT_FILE_HEADER extended
OUTPUT_FILE_FORMAT formatted
